* PSpice Model Editor - Version 22.1.0

*$
*BeginSpec
*IF: (1.3867,0) (1.5622,0) (1.6444,829.88E-6) (1.6743,2.3859E-3) (1.6929,4.0456E-3) (1.7191,6.5353E-3) (1.7452,8.2988E-3) (1.7751,10.892E-3) (1.8087,13.589E-3)
*IF: (1.8386,15.768E-3) (1.8610,18.257E-3) (1.9021,20.954E-3) (1.9320,23.444E-3) (1.9544,25.830E-3) (1.9842,28.112E-3) (2.0104,30.602E-3) (2.0515,33.610E-3) (2.0851,36.411E-3)
*IF: (2.1187,39.627E-3) (2.1672,43.257E-3) (2.2046,46.369E-3) (2.2382,49.274E-3)
*JC:
*RL:
*RB: Vz=0 Iz=0 Zz=0
*RR: Trr=0 Ifwd=10.000E-3 Irev=10.000E-3 Rl=100
*EndSpec

*BeginTrace
*IF: 1,0,.4,2.2382,1,3,0,0,-1 (27)
*JC: 0,1,.1,10,1,3,0,0,-1 (27)
*RL: 0,0,1,100,1,3,0,0,-1 (27)
*RB: 0,1,100.00E-6,1,1,3,0,0,-1 (27)
*RR: 0,0,-5.0000E-9,20.000E-9,1,3,0,0,-1 (27)
*EndTrace

*BeginParam
*IS=10.159E-21 (10.000E-21,.1,0)
*N=1.0904 (.2,5,0)
*RS=8.6867 (1.0000E-6,100,0)
*IKF=75.537E-12 (0,1.0000E3,0)
*XTI=3 (-100,100,0)
*EG=1.1100 (.1,5.5100,0)
*CJO=1.0000E-12 (10.000E-21,1.0000E-3,0)
*M=.3333 (.1,10,0)
*VJ=.75 (.3905,10,0)
*FC=.5 (1.0000E-3,10,0)
*ISR=100.00E-12 (10.000E-21,.1,0)
*NR=2 (.5,5,0)
*BV=100 (.1,1.0000E6,0)
*IBV=100.00E-6 (1.0000E-9,10,0)
*TT=5.0000E-9 (100.00E-18,1.0000E-3,0)
*EndParam

*DEVICE=LED_Portocaliu,D

* LED_Portocaliu D model
* created using Model Editor release 22.1.0 on 05/21/23 at 11:52
* The Model Editor is a PSpice product.
.MODEL LED_Portocaliu D
+ IS=10.159E-21
+ N=1.0904
+ RS=8.6867
*$
